  Page 1                                    Wed Nov 29 14:35:31 2023

  ******************************************************************
  *                           E P A N E T                          *
  *                   Hydraulic and Water Quality                  *
  *                   Analysis for Pipe Networks                   *
  *                         Version 2.2                            *
  ******************************************************************
  
  Analysis begun Wed Nov 29 14:35:31 2023

   
  Hydraulic Status:
  -----------------------------------------------------------------------
     0:00:00: Balanced after 2 trials
     0:00:00: Tank 5 is closed at 2.27 ft
   
     0:00:01: Balanced after 1 trials
   
     0:00:02: Balanced after 1 trials
   
     0:00:03: Balanced after 1 trials
   
     0:00:04: Balanced after 1 trials
   
     0:00:05: Balanced after 1 trials
   
     0:00:06: Balanced after 1 trials
   
     0:00:07: Balanced after 1 trials
   
     0:00:08: Balanced after 1 trials
   
     0:00:09: Balanced after 1 trials
   
     0:00:10: Balanced after 2 trials
   
  WARNING: Negative pressures at 0:00:10 hrs.
   
     0:00:11: Balanced after 1 trials
   
  WARNING: Negative pressures at 0:00:11 hrs.
   
     0:00:12: Balanced after 1 trials
   
  WARNING: Negative pressures at 0:00:12 hrs.
   
     0:00:13: Balanced after 1 trials
   
  WARNING: Negative pressures at 0:00:13 hrs.
   
     0:00:14: Balanced after 1 trials
   
  WARNING: Negative pressures at 0:00:14 hrs.
   
     0:00:15: Balanced after 1 trials
   
  WARNING: Negative pressures at 0:00:15 hrs.
   
     0:00:16: Balanced after 1 trials
   
  WARNING: Negative pressures at 0:00:16 hrs.
   
     0:00:17: Balanced after 1 trials
   
  WARNING: Negative pressures at 0:00:17 hrs.
   
     0:00:18: Balanced after 1 trials
   
  WARNING: Negative pressures at 0:00:18 hrs.
   
     0:00:19: Balanced after 1 trials
   
  WARNING: Negative pressures at 0:00:19 hrs.
   
     0:00:20: Balanced after 1 trials
   
  WARNING: Negative pressures at 0:00:20 hrs.
   
     0:00:21: Balanced after 1 trials
   
  WARNING: Negative pressures at 0:00:21 hrs.
   
     0:00:22: Balanced after 1 trials
   
  WARNING: Negative pressures at 0:00:22 hrs.
   
     0:00:23: Balanced after 1 trials
   
  WARNING: Negative pressures at 0:00:23 hrs.
   
     0:00:24: Balanced after 1 trials
   
  WARNING: Negative pressures at 0:00:24 hrs.
   
     0:00:25: Balanced after 1 trials
   
  WARNING: Negative pressures at 0:00:25 hrs.
   
     0:00:26: Balanced after 1 trials
   
  WARNING: Negative pressures at 0:00:26 hrs.
   
     0:00:27: Balanced after 1 trials
   
  WARNING: Negative pressures at 0:00:27 hrs.
   
     0:00:28: Balanced after 1 trials
   
  WARNING: Negative pressures at 0:00:28 hrs.
   
     0:00:29: Balanced after 1 trials
   
  WARNING: Negative pressures at 0:00:29 hrs.
   
     0:00:30: Balanced after 1 trials
   
  WARNING: Negative pressures at 0:00:30 hrs.
   
     0:00:31: Balanced after 1 trials
   
  WARNING: Negative pressures at 0:00:31 hrs.
   
     0:00:32: Balanced after 1 trials
   
  WARNING: Negative pressures at 0:00:32 hrs.
   
     0:00:33: Balanced after 1 trials
   
  WARNING: Negative pressures at 0:00:33 hrs.
   
     0:00:34: Balanced after 1 trials
   
  WARNING: Negative pressures at 0:00:34 hrs.
   
     0:00:35: Balanced after 1 trials
   
  WARNING: Negative pressures at 0:00:35 hrs.
   
     0:00:36: Balanced after 1 trials
   
  WARNING: Negative pressures at 0:00:36 hrs.
   
     0:00:37: Balanced after 1 trials
   
  WARNING: Negative pressures at 0:00:37 hrs.
   
     0:00:38: Balanced after 1 trials
   
  WARNING: Negative pressures at 0:00:38 hrs.
   
     0:00:39: Balanced after 1 trials
   
  WARNING: Negative pressures at 0:00:39 hrs.
   
     0:00:40: Balanced after 1 trials
   
  WARNING: Negative pressures at 0:00:40 hrs.
   
     0:00:41: Balanced after 1 trials
   
  WARNING: Negative pressures at 0:00:41 hrs.
   
     0:00:42: Balanced after 1 trials
   
  WARNING: Negative pressures at 0:00:42 hrs.
   
     0:00:43: Balanced after 1 trials
   
  WARNING: Negative pressures at 0:00:43 hrs.
   
     0:00:44: Balanced after 1 trials
   
  WARNING: Negative pressures at 0:00:44 hrs.
   
     0:00:45: Balanced after 1 trials
   
  WARNING: Negative pressures at 0:00:45 hrs.
   
     0:00:46: Balanced after 1 trials
   
  WARNING: Negative pressures at 0:00:46 hrs.
   
     0:00:47: Balanced after 1 trials
   
  WARNING: Negative pressures at 0:00:47 hrs.
   
     0:00:48: Balanced after 1 trials
   
  WARNING: Negative pressures at 0:00:48 hrs.
   
     0:00:49: Balanced after 1 trials
   
  WARNING: Negative pressures at 0:00:49 hrs.
   
     0:00:50: Balanced after 1 trials
   
  WARNING: Negative pressures at 0:00:50 hrs.
   
     0:00:51: Balanced after 1 trials
   
  WARNING: Negative pressures at 0:00:51 hrs.
   
     0:00:52: Balanced after 1 trials
   
  WARNING: Negative pressures at 0:00:52 hrs.
   
     0:00:53: Balanced after 1 trials
   
  WARNING: Negative pressures at 0:00:53 hrs.
   
     0:00:54: Balanced after 1 trials
   
  WARNING: Negative pressures at 0:00:54 hrs.
   
     0:00:55: Balanced after 1 trials
   
  WARNING: Negative pressures at 0:00:55 hrs.
   
     0:00:56: Balanced after 1 trials
   
  WARNING: Negative pressures at 0:00:56 hrs.
   
     0:00:57: Balanced after 1 trials
   
  WARNING: Negative pressures at 0:00:57 hrs.
   
     0:00:58: Balanced after 1 trials
   
  WARNING: Negative pressures at 0:00:58 hrs.
   
     0:00:59: Balanced after 1 trials
   
  WARNING: Negative pressures at 0:00:59 hrs.
   
     0:01:00: Balanced after 1 trials
   
  WARNING: Negative pressures at 0:01:00 hrs.
   
     0:01:01: Balanced after 1 trials
   
  WARNING: Negative pressures at 0:01:01 hrs.
   
     0:01:02: Balanced after 1 trials
   
  WARNING: Negative pressures at 0:01:02 hrs.
   
     0:01:03: Balanced after 1 trials
   
  WARNING: Negative pressures at 0:01:03 hrs.
   
     0:01:04: Balanced after 1 trials
   
  WARNING: Negative pressures at 0:01:04 hrs.
   
     0:01:05: Balanced after 1 trials
   
  WARNING: Negative pressures at 0:01:05 hrs.
   
     0:01:06: Balanced after 1 trials
   
  WARNING: Negative pressures at 0:01:06 hrs.
   
     0:01:07: Balanced after 1 trials
   
  WARNING: Negative pressures at 0:01:07 hrs.
   
     0:01:08: Balanced after 1 trials
   
  WARNING: Negative pressures at 0:01:08 hrs.
   
     0:01:09: Balanced after 1 trials
   
  WARNING: Negative pressures at 0:01:09 hrs.
   
     0:01:10: Balanced after 1 trials
   
  WARNING: Negative pressures at 0:01:10 hrs.
   
     0:01:11: Balanced after 1 trials
   
  WARNING: Negative pressures at 0:01:11 hrs.
   
     0:01:12: Balanced after 1 trials
   
  WARNING: Negative pressures at 0:01:12 hrs.
   
     0:01:13: Balanced after 1 trials
   
  WARNING: Negative pressures at 0:01:13 hrs.
   
     0:01:14: Balanced after 1 trials
   
  WARNING: Negative pressures at 0:01:14 hrs.
   
     0:01:15: Balanced after 1 trials
   
  WARNING: Negative pressures at 0:01:15 hrs.
   
     0:01:16: Balanced after 1 trials
   
  WARNING: Negative pressures at 0:01:16 hrs.
   
     0:01:17: Balanced after 1 trials
   
  WARNING: Negative pressures at 0:01:17 hrs.
   
     0:01:18: Balanced after 1 trials
   
  WARNING: Negative pressures at 0:01:18 hrs.
   
     0:01:19: Balanced after 1 trials
   
  WARNING: Negative pressures at 0:01:19 hrs.
   
     0:01:20: Balanced after 1 trials
   
  WARNING: Negative pressures at 0:01:20 hrs.
   
     0:01:21: Balanced after 1 trials
   
  WARNING: Negative pressures at 0:01:21 hrs.
   
     0:01:22: Balanced after 1 trials
   
  WARNING: Negative pressures at 0:01:22 hrs.
   
     0:01:23: Balanced after 1 trials
   
  WARNING: Negative pressures at 0:01:23 hrs.
   
     0:01:24: Balanced after 1 trials
   
  WARNING: Negative pressures at 0:01:24 hrs.
   
     0:01:25: Balanced after 1 trials
   
  WARNING: Negative pressures at 0:01:25 hrs.
   
     0:01:26: Balanced after 1 trials
   
  WARNING: Negative pressures at 0:01:26 hrs.
   
     0:01:27: Balanced after 1 trials
   
  WARNING: Negative pressures at 0:01:27 hrs.
   
     0:01:28: Balanced after 1 trials
   
  WARNING: Negative pressures at 0:01:28 hrs.
   
     0:01:29: Balanced after 1 trials
   
  WARNING: Negative pressures at 0:01:29 hrs.
   
     0:01:30: Balanced after 1 trials
   
  WARNING: Negative pressures at 0:01:30 hrs.
   
     0:01:31: Balanced after 1 trials
   
  WARNING: Negative pressures at 0:01:31 hrs.
   
     0:01:32: Balanced after 1 trials
   
  WARNING: Negative pressures at 0:01:32 hrs.
   
     0:01:33: Balanced after 1 trials
   
  WARNING: Negative pressures at 0:01:33 hrs.
   
     0:01:34: Balanced after 1 trials
   
  WARNING: Negative pressures at 0:01:34 hrs.
   
     0:01:35: Balanced after 1 trials
   
  WARNING: Negative pressures at 0:01:35 hrs.
   
     0:01:36: Balanced after 1 trials
   
  WARNING: Negative pressures at 0:01:36 hrs.
   
     0:01:37: Balanced after 1 trials
   
  WARNING: Negative pressures at 0:01:37 hrs.
   
     0:01:38: Balanced after 1 trials
   
  WARNING: Negative pressures at 0:01:38 hrs.
   
     0:01:39: Balanced after 1 trials
   
  WARNING: Negative pressures at 0:01:39 hrs.
   
     0:01:40: Balanced after 1 trials
   
  WARNING: Negative pressures at 0:01:40 hrs.
   
     0:01:41: Balanced after 1 trials
   
  WARNING: Negative pressures at 0:01:41 hrs.
   
     0:01:42: Balanced after 1 trials
   
  WARNING: Negative pressures at 0:01:42 hrs.
   
     0:01:43: Balanced after 1 trials
   
  WARNING: Negative pressures at 0:01:43 hrs.
   
     0:01:44: Balanced after 1 trials
   
  WARNING: Negative pressures at 0:01:44 hrs.
   
     0:01:45: Balanced after 1 trials
   
  WARNING: Negative pressures at 0:01:45 hrs.
   
     0:01:46: Balanced after 1 trials
   
  WARNING: Negative pressures at 0:01:46 hrs.
   
     0:01:47: Balanced after 1 trials
   
  WARNING: Negative pressures at 0:01:47 hrs.
   
     0:01:48: Balanced after 1 trials
   
  WARNING: Negative pressures at 0:01:48 hrs.
   
     0:01:49: Balanced after 1 trials
   
  WARNING: Negative pressures at 0:01:49 hrs.
   
     0:01:50: Balanced after 1 trials
   
  WARNING: Negative pressures at 0:01:50 hrs.
   
     0:01:51: Balanced after 1 trials
   
  WARNING: Negative pressures at 0:01:51 hrs.
   
     0:01:52: Balanced after 1 trials
   
  WARNING: Negative pressures at 0:01:52 hrs.
   
     0:01:53: Balanced after 1 trials
   
  WARNING: Negative pressures at 0:01:53 hrs.
   
     0:01:54: Balanced after 1 trials
   
  WARNING: Negative pressures at 0:01:54 hrs.
   
     0:01:55: Balanced after 1 trials
   
  WARNING: Negative pressures at 0:01:55 hrs.
   
     0:01:56: Balanced after 1 trials
   
  WARNING: Negative pressures at 0:01:56 hrs.
   
     0:01:57: Balanced after 1 trials
   
  WARNING: Negative pressures at 0:01:57 hrs.
   
     0:01:58: Balanced after 1 trials
   
  WARNING: Negative pressures at 0:01:58 hrs.
   
     0:01:59: Balanced after 1 trials
   
  WARNING: Negative pressures at 0:01:59 hrs.
   
     0:02:00: Balanced after 1 trials
   
  WARNING: Negative pressures at 0:02:00 hrs.
   
     0:02:01: Balanced after 1 trials
   
  WARNING: Negative pressures at 0:02:01 hrs.
   
     0:02:02: Balanced after 1 trials
   
  WARNING: Negative pressures at 0:02:02 hrs.
   
     0:02:03: Balanced after 1 trials
   
  WARNING: Negative pressures at 0:02:03 hrs.
   
     0:02:04: Balanced after 1 trials
   
  WARNING: Negative pressures at 0:02:04 hrs.
   
     0:02:05: Balanced after 1 trials
   
  WARNING: Negative pressures at 0:02:05 hrs.
   
     0:02:06: Balanced after 1 trials
   
  WARNING: Negative pressures at 0:02:06 hrs.
   
     0:02:07: Balanced after 1 trials
   
  WARNING: Negative pressures at 0:02:07 hrs.
   
     0:02:08: Balanced after 1 trials
   
  WARNING: Negative pressures at 0:02:08 hrs.
   
     0:02:09: Balanced after 1 trials
   
  WARNING: Negative pressures at 0:02:09 hrs.
   
     0:02:10: Balanced after 1 trials
   
  WARNING: Negative pressures at 0:02:10 hrs.
   
     0:02:11: Balanced after 1 trials
   
  WARNING: Negative pressures at 0:02:11 hrs.
   
     0:02:12: Balanced after 1 trials
   
  WARNING: Negative pressures at 0:02:12 hrs.
   
     0:02:13: Balanced after 1 trials
   
  WARNING: Negative pressures at 0:02:13 hrs.
   
     0:02:14: Balanced after 1 trials
   
  WARNING: Negative pressures at 0:02:14 hrs.
   
     0:02:15: Balanced after 1 trials
   
  WARNING: Negative pressures at 0:02:15 hrs.
   
     0:02:16: Balanced after 1 trials
   
  WARNING: Negative pressures at 0:02:16 hrs.
   
     0:02:17: Balanced after 1 trials
   
  WARNING: Negative pressures at 0:02:17 hrs.
   
     0:02:18: Balanced after 1 trials
   
  WARNING: Negative pressures at 0:02:18 hrs.
   
     0:02:19: Balanced after 1 trials
   
  WARNING: Negative pressures at 0:02:19 hrs.
   
     0:02:20: Balanced after 1 trials
   
  WARNING: Negative pressures at 0:02:20 hrs.
   
     0:02:21: Balanced after 1 trials
   
  WARNING: Negative pressures at 0:02:21 hrs.
   
     0:02:22: Balanced after 1 trials
   
  WARNING: Negative pressures at 0:02:22 hrs.
   
     0:02:23: Balanced after 1 trials
   
  WARNING: Negative pressures at 0:02:23 hrs.
   
     0:02:24: Balanced after 1 trials
   
  WARNING: Negative pressures at 0:02:24 hrs.
   
     0:02:25: Balanced after 1 trials
   
  WARNING: Negative pressures at 0:02:25 hrs.
   
     0:02:26: Balanced after 1 trials
   
  WARNING: Negative pressures at 0:02:26 hrs.
   
     0:02:27: Balanced after 1 trials
   
  WARNING: Negative pressures at 0:02:27 hrs.
   
     0:02:28: Balanced after 1 trials
   
  WARNING: Negative pressures at 0:02:28 hrs.
   
     0:02:29: Balanced after 1 trials
   
  WARNING: Negative pressures at 0:02:29 hrs.
   
     0:02:30: Balanced after 1 trials
   
  WARNING: Negative pressures at 0:02:30 hrs.
   
     0:02:31: Balanced after 1 trials
   
  WARNING: Negative pressures at 0:02:31 hrs.
   
     0:02:32: Balanced after 1 trials
   
  WARNING: Negative pressures at 0:02:32 hrs.
   
     0:02:33: Balanced after 1 trials
   
  WARNING: Negative pressures at 0:02:33 hrs.
   
     0:02:34: Balanced after 1 trials
   
  WARNING: Negative pressures at 0:02:34 hrs.
   
     0:02:35: Balanced after 1 trials
   
  WARNING: Negative pressures at 0:02:35 hrs.
   
     0:02:36: Balanced after 1 trials
   
  WARNING: Negative pressures at 0:02:36 hrs.
   
     0:02:37: Balanced after 1 trials
   
  WARNING: Negative pressures at 0:02:37 hrs.
   
     0:02:38: Balanced after 1 trials
   
  WARNING: Negative pressures at 0:02:38 hrs.
   
     0:02:39: Balanced after 1 trials
   
  WARNING: Negative pressures at 0:02:39 hrs.
   
     0:02:40: Balanced after 1 trials
   
  WARNING: Negative pressures at 0:02:40 hrs.
   
     0:02:41: Balanced after 1 trials
   
  WARNING: Negative pressures at 0:02:41 hrs.
   
     0:02:42: Balanced after 1 trials
   
  WARNING: Negative pressures at 0:02:42 hrs.
   
     0:02:43: Balanced after 1 trials
   
  WARNING: Negative pressures at 0:02:43 hrs.
   
     0:02:44: Balanced after 1 trials
   
  WARNING: Negative pressures at 0:02:44 hrs.
   
     0:02:45: Balanced after 1 trials
   
  WARNING: Negative pressures at 0:02:45 hrs.
   
     0:02:46: Balanced after 1 trials
   
  WARNING: Negative pressures at 0:02:46 hrs.
   
     0:02:47: Balanced after 1 trials
   
  WARNING: Negative pressures at 0:02:47 hrs.
   
     0:02:48: Balanced after 1 trials
   
  WARNING: Negative pressures at 0:02:48 hrs.
   
     0:02:49: Balanced after 1 trials
   
  WARNING: Negative pressures at 0:02:49 hrs.
   
     0:02:50: Balanced after 1 trials
   
  WARNING: Negative pressures at 0:02:50 hrs.
   
     0:02:51: Balanced after 1 trials
   
  WARNING: Negative pressures at 0:02:51 hrs.
   
     0:02:52: Balanced after 1 trials
   
  WARNING: Negative pressures at 0:02:52 hrs.
   
     0:02:53: Balanced after 1 trials
   
  WARNING: Negative pressures at 0:02:53 hrs.
   
     0:02:54: Balanced after 1 trials
   
  WARNING: Negative pressures at 0:02:54 hrs.
   
     0:02:55: Balanced after 1 trials
   
  WARNING: Negative pressures at 0:02:55 hrs.
   
     0:02:56: Balanced after 1 trials
   
  WARNING: Negative pressures at 0:02:56 hrs.
   
     0:02:57: Balanced after 1 trials
   
  WARNING: Negative pressures at 0:02:57 hrs.
   
     0:02:58: Balanced after 1 trials
   
  WARNING: Negative pressures at 0:02:58 hrs.
   
     0:02:59: Balanced after 1 trials
   
  WARNING: Negative pressures at 0:02:59 hrs.
   
     0:03:00: Balanced after 1 trials
   
  WARNING: Negative pressures at 0:03:00 hrs.
   
     0:03:01: Balanced after 1 trials
   
  WARNING: Negative pressures at 0:03:01 hrs.
   
     0:03:02: Balanced after 1 trials
   
  WARNING: Negative pressures at 0:03:02 hrs.
   
     0:03:03: Balanced after 1 trials
   
  WARNING: Negative pressures at 0:03:03 hrs.
   
     0:03:04: Balanced after 1 trials
   
  WARNING: Negative pressures at 0:03:04 hrs.
   
     0:03:05: Balanced after 1 trials
   
  WARNING: Negative pressures at 0:03:05 hrs.
   
     0:03:06: Balanced after 1 trials
   
  WARNING: Negative pressures at 0:03:06 hrs.
   
     0:03:07: Balanced after 1 trials
   
  WARNING: Negative pressures at 0:03:07 hrs.
   
     0:03:08: Balanced after 1 trials
   
  WARNING: Negative pressures at 0:03:08 hrs.
   
     0:03:09: Balanced after 1 trials
   
  WARNING: Negative pressures at 0:03:09 hrs.
   
     0:03:10: Balanced after 1 trials
   
  WARNING: Negative pressures at 0:03:10 hrs.
   
     0:03:11: Balanced after 1 trials
   
  WARNING: Negative pressures at 0:03:11 hrs.
   
     0:03:12: Balanced after 1 trials
   
  WARNING: Negative pressures at 0:03:12 hrs.
   
     0:03:13: Balanced after 1 trials
   
  WARNING: Negative pressures at 0:03:13 hrs.
   
     0:03:14: Balanced after 1 trials
   
  WARNING: Negative pressures at 0:03:14 hrs.
   
     0:03:15: Balanced after 1 trials
   
  WARNING: Negative pressures at 0:03:15 hrs.
   
     0:03:16: Balanced after 1 trials
   
  WARNING: Negative pressures at 0:03:16 hrs.
   
     0:03:17: Balanced after 1 trials
   
  WARNING: Negative pressures at 0:03:17 hrs.
   
     0:03:18: Balanced after 1 trials
   
  WARNING: Negative pressures at 0:03:18 hrs.
   
     0:03:19: Balanced after 1 trials
   
  WARNING: Negative pressures at 0:03:19 hrs.
   
     0:03:20: Balanced after 1 trials
   
  WARNING: Negative pressures at 0:03:20 hrs.
   
     0:03:21: Balanced after 1 trials
   
  WARNING: Negative pressures at 0:03:21 hrs.
   
     0:03:22: Balanced after 1 trials
   
  WARNING: Negative pressures at 0:03:22 hrs.
   
     0:03:23: Balanced after 1 trials
   
  WARNING: Negative pressures at 0:03:23 hrs.
   
     0:03:24: Balanced after 1 trials
   
  WARNING: Negative pressures at 0:03:24 hrs.
   
     0:03:25: Balanced after 1 trials
   
  WARNING: Negative pressures at 0:03:25 hrs.
   
     0:03:26: Balanced after 1 trials
   
  WARNING: Negative pressures at 0:03:26 hrs.
   
     0:03:27: Balanced after 1 trials
   
  WARNING: Negative pressures at 0:03:27 hrs.
   
     0:03:28: Balanced after 1 trials
   
  WARNING: Negative pressures at 0:03:28 hrs.
   
     0:03:29: Balanced after 1 trials
   
  WARNING: Negative pressures at 0:03:29 hrs.
   
     0:03:30: Balanced after 1 trials
   
  WARNING: Negative pressures at 0:03:30 hrs.
   
     0:03:31: Balanced after 1 trials
   
  WARNING: Negative pressures at 0:03:31 hrs.
   
     0:03:32: Balanced after 1 trials
   
  WARNING: Negative pressures at 0:03:32 hrs.
   
     0:03:33: Balanced after 1 trials
   
  WARNING: Negative pressures at 0:03:33 hrs.
   
     0:03:34: Balanced after 1 trials
   
  WARNING: Negative pressures at 0:03:34 hrs.
   
     0:03:35: Balanced after 1 trials
   
  WARNING: Negative pressures at 0:03:35 hrs.
   
     0:03:36: Balanced after 1 trials
   
  WARNING: Negative pressures at 0:03:36 hrs.
   
     0:03:37: Balanced after 1 trials
   
  WARNING: Negative pressures at 0:03:37 hrs.
   
     0:03:38: Balanced after 1 trials
   
  WARNING: Negative pressures at 0:03:38 hrs.
   
     0:03:39: Balanced after 1 trials
   
  WARNING: Negative pressures at 0:03:39 hrs.
   
     0:03:40: Balanced after 1 trials
   
  WARNING: Negative pressures at 0:03:40 hrs.
   
     0:03:41: Balanced after 1 trials
   
  WARNING: Negative pressures at 0:03:41 hrs.
   
     0:03:42: Balanced after 1 trials
   
  WARNING: Negative pressures at 0:03:42 hrs.
   
     0:03:43: Balanced after 1 trials
   
  WARNING: Negative pressures at 0:03:43 hrs.
   
     0:03:44: Balanced after 1 trials
   
  WARNING: Negative pressures at 0:03:44 hrs.
   
     0:03:45: Balanced after 1 trials
   
  WARNING: Negative pressures at 0:03:45 hrs.
   
     0:03:46: Balanced after 1 trials
   
  WARNING: Negative pressures at 0:03:46 hrs.
   
     0:03:47: Balanced after 1 trials
   
  WARNING: Negative pressures at 0:03:47 hrs.
   
     0:03:48: Balanced after 1 trials
   
  WARNING: Negative pressures at 0:03:48 hrs.
   
     0:03:49: Balanced after 1 trials
   
  WARNING: Negative pressures at 0:03:49 hrs.
   
     0:03:50: Balanced after 1 trials
   
  WARNING: Negative pressures at 0:03:50 hrs.
   
     0:03:51: Balanced after 1 trials
   
  WARNING: Negative pressures at 0:03:51 hrs.
   
     0:03:52: Balanced after 1 trials
   
  WARNING: Negative pressures at 0:03:52 hrs.
   
     0:03:53: Balanced after 1 trials
   
  WARNING: Negative pressures at 0:03:53 hrs.
   
     0:03:54: Balanced after 1 trials
   
  WARNING: Negative pressures at 0:03:54 hrs.
   
     0:03:55: Balanced after 1 trials
   
  WARNING: Negative pressures at 0:03:55 hrs.
   
     0:03:56: Balanced after 1 trials
   
  WARNING: Negative pressures at 0:03:56 hrs.
   
     0:03:57: Balanced after 1 trials
   
  WARNING: Negative pressures at 0:03:57 hrs.
   
     0:03:58: Balanced after 1 trials
   
  WARNING: Negative pressures at 0:03:58 hrs.
   
     0:03:59: Balanced after 1 trials
   
  WARNING: Negative pressures at 0:03:59 hrs.
   
     0:04:00: Balanced after 1 trials
   
  WARNING: Negative pressures at 0:04:00 hrs.
   
     0:04:01: Balanced after 1 trials
   
  WARNING: Negative pressures at 0:04:01 hrs.
   
     0:04:02: Balanced after 1 trials
   
  WARNING: Negative pressures at 0:04:02 hrs.
   
     0:04:03: Balanced after 1 trials
   
  WARNING: Negative pressures at 0:04:03 hrs.
   
     0:04:04: Balanced after 1 trials
   
  WARNING: Negative pressures at 0:04:04 hrs.
   
     0:04:05: Balanced after 1 trials
   
  WARNING: Negative pressures at 0:04:05 hrs.
   
     0:04:06: Balanced after 1 trials
   
  WARNING: Negative pressures at 0:04:06 hrs.
   
     0:04:07: Balanced after 1 trials
   
  WARNING: Negative pressures at 0:04:07 hrs.
   
     0:04:08: Balanced after 1 trials
   
  WARNING: Negative pressures at 0:04:08 hrs.
   
     0:04:09: Balanced after 1 trials
   
  WARNING: Negative pressures at 0:04:09 hrs.
   
     0:04:10: Balanced after 1 trials
   
  WARNING: Negative pressures at 0:04:10 hrs.
   
     0:04:11: Balanced after 1 trials
   
  WARNING: Negative pressures at 0:04:11 hrs.
   
     0:04:12: Balanced after 1 trials
   
  WARNING: Negative pressures at 0:04:12 hrs.
   
     0:04:13: Balanced after 1 trials
   
  WARNING: Negative pressures at 0:04:13 hrs.
   
     0:04:14: Balanced after 1 trials
   
  WARNING: Negative pressures at 0:04:14 hrs.
   
     0:04:15: Balanced after 1 trials
   
  WARNING: Negative pressures at 0:04:15 hrs.
   
     0:04:16: Balanced after 1 trials
   
  WARNING: Negative pressures at 0:04:16 hrs.
   
     0:04:17: Balanced after 1 trials
   
  WARNING: Negative pressures at 0:04:17 hrs.
   
     0:04:18: Balanced after 1 trials
   
  WARNING: Negative pressures at 0:04:18 hrs.
   
     0:04:19: Balanced after 1 trials
   
  WARNING: Negative pressures at 0:04:19 hrs.
   
     0:04:20: Balanced after 1 trials
   
  WARNING: Negative pressures at 0:04:20 hrs.
   
     0:04:21: Balanced after 1 trials
   
  WARNING: Negative pressures at 0:04:21 hrs.
   
     0:04:22: Balanced after 1 trials
   
  WARNING: Negative pressures at 0:04:22 hrs.
   
     0:04:23: Balanced after 1 trials
   
  WARNING: Negative pressures at 0:04:23 hrs.
   
     0:04:24: Balanced after 1 trials
   
  WARNING: Negative pressures at 0:04:24 hrs.
   
     0:04:25: Balanced after 1 trials
   
  WARNING: Negative pressures at 0:04:25 hrs.
   
     0:04:26: Balanced after 1 trials
   
  WARNING: Negative pressures at 0:04:26 hrs.
   
     0:04:27: Balanced after 1 trials
   
  WARNING: Negative pressures at 0:04:27 hrs.
   
     0:04:28: Balanced after 1 trials
   
  WARNING: Negative pressures at 0:04:28 hrs.
   
     0:04:29: Balanced after 1 trials
   
  WARNING: Negative pressures at 0:04:29 hrs.
   
     0:04:30: Balanced after 1 trials
   
  WARNING: Negative pressures at 0:04:30 hrs.
   
     0:04:31: Balanced after 1 trials
   
  WARNING: Negative pressures at 0:04:31 hrs.
   
     0:04:32: Balanced after 1 trials
   
  WARNING: Negative pressures at 0:04:32 hrs.
   
     0:04:33: Balanced after 1 trials
   
  WARNING: Negative pressures at 0:04:33 hrs.
   
     0:04:34: Balanced after 1 trials
   
  WARNING: Negative pressures at 0:04:34 hrs.
   
     0:04:35: Balanced after 1 trials
   
  WARNING: Negative pressures at 0:04:35 hrs.
   
     0:04:36: Balanced after 1 trials
   
  WARNING: Negative pressures at 0:04:36 hrs.
   
     0:04:37: Balanced after 1 trials
   
  WARNING: Negative pressures at 0:04:37 hrs.
   
     0:04:38: Balanced after 1 trials
   
  WARNING: Negative pressures at 0:04:38 hrs.
   
     0:04:39: Balanced after 1 trials
   
  WARNING: Negative pressures at 0:04:39 hrs.
   
     0:04:40: Balanced after 1 trials
   
  WARNING: Negative pressures at 0:04:40 hrs.
   
     0:04:41: Balanced after 1 trials
   
  WARNING: Negative pressures at 0:04:41 hrs.
   
     0:04:42: Balanced after 1 trials
   
  WARNING: Negative pressures at 0:04:42 hrs.
   
     0:04:43: Balanced after 1 trials
   
  WARNING: Negative pressures at 0:04:43 hrs.
   
     0:04:44: Balanced after 1 trials
   
  WARNING: Negative pressures at 0:04:44 hrs.
   
     0:04:45: Balanced after 1 trials
   
  WARNING: Negative pressures at 0:04:45 hrs.
   
     0:04:46: Balanced after 1 trials
   
  WARNING: Negative pressures at 0:04:46 hrs.
   
     0:04:47: Balanced after 1 trials
   
  WARNING: Negative pressures at 0:04:47 hrs.
   
     0:04:48: Balanced after 1 trials
   
  WARNING: Negative pressures at 0:04:48 hrs.
   
     0:04:49: Balanced after 1 trials
   
  WARNING: Negative pressures at 0:04:49 hrs.
   
     0:04:50: Balanced after 1 trials
   
  WARNING: Negative pressures at 0:04:50 hrs.
   
     0:04:51: Balanced after 1 trials
   
  WARNING: Negative pressures at 0:04:51 hrs.
   
     0:04:52: Balanced after 1 trials
   
  WARNING: Negative pressures at 0:04:52 hrs.
   
     0:04:53: Balanced after 1 trials
   
  WARNING: Negative pressures at 0:04:53 hrs.
   
     0:04:54: Balanced after 1 trials
   
  WARNING: Negative pressures at 0:04:54 hrs.
   
     0:04:55: Balanced after 1 trials
   
  WARNING: Negative pressures at 0:04:55 hrs.
   
     0:04:56: Balanced after 1 trials
   
  WARNING: Negative pressures at 0:04:56 hrs.
   
     0:04:57: Balanced after 1 trials
   
  WARNING: Negative pressures at 0:04:57 hrs.
   
     0:04:58: Balanced after 1 trials
   
  WARNING: Negative pressures at 0:04:58 hrs.
   
     0:04:59: Balanced after 1 trials
   
  WARNING: Negative pressures at 0:04:59 hrs.
   
     0:05:00: Balanced after 1 trials
   
  WARNING: Negative pressures at 0:05:00 hrs.
   
     0:05:01: Balanced after 1 trials
   
  WARNING: Negative pressures at 0:05:01 hrs.
   
     0:05:02: Balanced after 1 trials
   
  WARNING: Negative pressures at 0:05:02 hrs.
   
     0:05:03: Balanced after 1 trials
   
  WARNING: Negative pressures at 0:05:03 hrs.
   
     0:05:04: Balanced after 1 trials
   
  WARNING: Negative pressures at 0:05:04 hrs.
   
     0:05:05: Balanced after 1 trials
   
  WARNING: Negative pressures at 0:05:05 hrs.
   
     0:05:06: Balanced after 1 trials
   
  WARNING: Negative pressures at 0:05:06 hrs.
   
     0:05:07: Balanced after 1 trials
   
  WARNING: Negative pressures at 0:05:07 hrs.
   
     0:05:08: Balanced after 1 trials
   
  WARNING: Negative pressures at 0:05:08 hrs.
   
     0:05:09: Balanced after 1 trials
   
  WARNING: Negative pressures at 0:05:09 hrs.
   
     0:05:10: Balanced after 2 trials
   
     0:05:11: Balanced after 1 trials
   
     0:05:12: Balanced after 1 trials
   
     0:05:13: Balanced after 1 trials
   
     0:05:14: Balanced after 1 trials
   
     0:05:15: Balanced after 1 trials
   
     0:05:16: Balanced after 1 trials
   
     0:05:17: Balanced after 1 trials
   
     0:05:18: Balanced after 1 trials
   
     0:05:19: Balanced after 1 trials
   
     0:05:20: Balanced after 1 trials
   
     0:05:21: Balanced after 1 trials
   
     0:05:22: Balanced after 1 trials
   
     0:05:23: Balanced after 1 trials
   
     0:05:24: Balanced after 1 trials
   
     0:05:25: Balanced after 1 trials
   
     0:05:26: Balanced after 1 trials
   
     0:05:27: Balanced after 1 trials
   
     0:05:28: Balanced after 1 trials
   
     0:05:29: Balanced after 1 trials
   
     0:05:30: Balanced after 1 trials
   
     0:05:31: Balanced after 1 trials
   
     0:05:32: Balanced after 1 trials
   
     0:05:33: Balanced after 1 trials
   
     0:05:34: Balanced after 1 trials
   
     0:05:35: Balanced after 1 trials
   
     0:05:36: Balanced after 1 trials
   
     0:05:37: Balanced after 1 trials
   
     0:05:38: Balanced after 1 trials
   
     0:05:39: Balanced after 1 trials
   
     0:05:40: Balanced after 1 trials
   
     0:05:41: Balanced after 1 trials
   
     0:05:42: Balanced after 1 trials
   
     0:05:43: Balanced after 1 trials
   
     0:05:44: Balanced after 1 trials
   
     0:05:45: Balanced after 1 trials
   
     0:05:46: Balanced after 1 trials
   
     0:05:47: Balanced after 1 trials
   
     0:05:48: Balanced after 1 trials
   
     0:05:49: Balanced after 1 trials
   
     0:05:50: Balanced after 1 trials
   
     0:05:51: Balanced after 1 trials
   
     0:05:52: Balanced after 1 trials
   
     0:05:53: Balanced after 1 trials
   
     0:05:54: Balanced after 1 trials
   
     0:05:55: Balanced after 1 trials
   
     0:05:56: Balanced after 1 trials
   
     0:05:57: Balanced after 1 trials
   
     0:05:58: Balanced after 1 trials
   
     0:05:59: Balanced after 1 trials
   
     0:06:00: Balanced after 1 trials
   
     0:06:01: Balanced after 1 trials
   
     0:06:02: Balanced after 1 trials
   
     0:06:03: Balanced after 1 trials
   
     0:06:04: Balanced after 1 trials
   
     0:06:05: Balanced after 1 trials
   
     0:06:06: Balanced after 1 trials
   
     0:06:07: Balanced after 1 trials
   
     0:06:08: Balanced after 1 trials
   
     0:06:09: Balanced after 1 trials
   
     0:06:10: Balanced after 1 trials
   
     0:06:11: Balanced after 1 trials
   
     0:06:12: Balanced after 1 trials
   
     0:06:13: Balanced after 1 trials
   
     0:06:14: Balanced after 1 trials
   
     0:06:15: Balanced after 1 trials
   
     0:06:16: Balanced after 1 trials
   
     0:06:17: Balanced after 1 trials
   
     0:06:18: Balanced after 1 trials
   
     0:06:19: Balanced after 1 trials
   
     0:06:20: Balanced after 1 trials
   
     0:06:21: Balanced after 1 trials
   
     0:06:22: Balanced after 1 trials
   
     0:06:23: Balanced after 1 trials
   
     0:06:24: Balanced after 1 trials
   
     0:06:25: Balanced after 1 trials
   
     0:06:26: Balanced after 1 trials
   
     0:06:27: Balanced after 1 trials
   
     0:06:28: Balanced after 1 trials
   
     0:06:29: Balanced after 1 trials
   
     0:06:30: Balanced after 1 trials
   
     0:06:31: Balanced after 1 trials
   
     0:06:32: Balanced after 1 trials
   
     0:06:33: Balanced after 1 trials
   
     0:06:34: Balanced after 1 trials
   
     0:06:35: Balanced after 1 trials
   
     0:06:36: Balanced after 1 trials
   
     0:06:37: Balanced after 1 trials
   
     0:06:38: Balanced after 1 trials
   
     0:06:39: Balanced after 1 trials
   
     0:06:40: Balanced after 1 trials
   
     0:06:41: Balanced after 1 trials
   
     0:06:42: Balanced after 1 trials
   
     0:06:43: Balanced after 1 trials
   
     0:06:44: Balanced after 1 trials
   
     0:06:45: Balanced after 1 trials
   
     0:06:46: Balanced after 1 trials
   
     0:06:47: Balanced after 1 trials
   
     0:06:48: Balanced after 1 trials
   
     0:06:49: Balanced after 1 trials
   
     0:06:50: Balanced after 1 trials
   
     0:06:51: Balanced after 1 trials
   
     0:06:52: Balanced after 1 trials
   
     0:06:53: Balanced after 1 trials
   
     0:06:54: Balanced after 1 trials
   
     0:06:55: Balanced after 1 trials
   
     0:06:56: Balanced after 1 trials
   
     0:06:57: Balanced after 1 trials
   
     0:06:58: Balanced after 1 trials
   
     0:06:59: Balanced after 1 trials
   
     0:07:00: Balanced after 1 trials
   
     0:07:01: Balanced after 1 trials
   
     0:07:02: Balanced after 1 trials
   
     0:07:03: Balanced after 1 trials
   
     0:07:04: Balanced after 1 trials
   
     0:07:05: Balanced after 1 trials
   
     0:07:06: Balanced after 1 trials
   
     0:07:07: Balanced after 1 trials
   
     0:07:08: Balanced after 1 trials
   
     0:07:09: Balanced after 1 trials
   
     0:07:10: Balanced after 1 trials
   
     0:07:11: Balanced after 1 trials
   
     0:07:12: Balanced after 1 trials
   
     0:07:13: Balanced after 1 trials
   
     0:07:14: Balanced after 1 trials
   
     0:07:15: Balanced after 1 trials
   
     0:07:16: Balanced after 1 trials
   
     0:07:17: Balanced after 1 trials
   
     0:07:18: Balanced after 1 trials
   
     0:07:19: Balanced after 1 trials
   
     0:07:20: Balanced after 1 trials
   
     0:07:21: Balanced after 1 trials
   
     0:07:22: Balanced after 1 trials
   
     0:07:23: Balanced after 1 trials
   
     0:07:24: Balanced after 1 trials
   
     0:07:25: Balanced after 1 trials
   
     0:07:26: Balanced after 1 trials
   
     0:07:27: Balanced after 1 trials
   
     0:07:28: Balanced after 1 trials
   
     0:07:29: Balanced after 1 trials
   
     0:07:30: Balanced after 1 trials
   
     0:07:31: Balanced after 1 trials
   
     0:07:32: Balanced after 1 trials
   
     0:07:33: Balanced after 1 trials
   
     0:07:34: Balanced after 1 trials
   
     0:07:35: Balanced after 1 trials
   
     0:07:36: Balanced after 1 trials
   
     0:07:37: Balanced after 1 trials
   
     0:07:38: Balanced after 1 trials
   
     0:07:39: Balanced after 1 trials
   
     0:07:40: Balanced after 1 trials
   
     0:07:41: Balanced after 1 trials
   
     0:07:42: Balanced after 1 trials
   
     0:07:43: Balanced after 1 trials
   
     0:07:44: Balanced after 1 trials
   
     0:07:45: Balanced after 1 trials
   
     0:07:46: Balanced after 1 trials
   
     0:07:47: Balanced after 1 trials
   
     0:07:48: Balanced after 1 trials
   
     0:07:49: Balanced after 1 trials
   
     0:07:50: Balanced after 1 trials
   
     0:07:51: Balanced after 1 trials
   
     0:07:52: Balanced after 1 trials
   
     0:07:53: Balanced after 1 trials
   
     0:07:54: Balanced after 1 trials
   
     0:07:55: Balanced after 1 trials
   
     0:07:56: Balanced after 1 trials
   
     0:07:57: Balanced after 1 trials
   
     0:07:58: Balanced after 1 trials
   
     0:07:59: Balanced after 1 trials
   
     0:08:00: Balanced after 1 trials
   
     0:08:01: Balanced after 1 trials
   
     0:08:02: Balanced after 1 trials
   
     0:08:03: Balanced after 1 trials
   
     0:08:04: Balanced after 1 trials
   
     0:08:05: Balanced after 1 trials
   
     0:08:06: Balanced after 1 trials
   
     0:08:07: Balanced after 1 trials
   
     0:08:08: Balanced after 1 trials
   
     0:08:09: Balanced after 1 trials
   
     0:08:10: Balanced after 2 trials
   
     0:08:11: Balanced after 1 trials
   
     0:08:12: Balanced after 1 trials
   
     0:08:13: Balanced after 1 trials
   
     0:08:14: Balanced after 1 trials
   
     0:08:15: Balanced after 1 trials
   
     0:08:16: Balanced after 1 trials
   
     0:08:17: Balanced after 1 trials
   
     0:08:18: Balanced after 1 trials
   
     0:08:19: Balanced after 1 trials
   
     0:08:20: Balanced after 1 trials
   
     0:08:21: Balanced after 1 trials
   
     0:08:22: Balanced after 1 trials
   
     0:08:23: Balanced after 1 trials
   
     0:08:24: Balanced after 1 trials
   
     0:08:25: Balanced after 1 trials
   
     0:08:26: Balanced after 1 trials
   
     0:08:27: Balanced after 1 trials
   
     0:08:28: Balanced after 1 trials
   
     0:08:29: Balanced after 1 trials
   
     0:08:30: Balanced after 1 trials
   
     0:08:31: Balanced after 1 trials
   
     0:08:32: Balanced after 1 trials
   
     0:08:33: Balanced after 1 trials
   
     0:08:34: Balanced after 1 trials
   
     0:08:35: Balanced after 1 trials
   
     0:08:36: Balanced after 1 trials
   
     0:08:37: Balanced after 1 trials
   
     0:08:38: Balanced after 1 trials
   
     0:08:39: Balanced after 1 trials
   
     0:08:40: Balanced after 1 trials
   
     0:08:41: Balanced after 1 trials
   
     0:08:42: Balanced after 1 trials
   
     0:08:43: Balanced after 1 trials
   
     0:08:44: Balanced after 1 trials
   
     0:08:45: Balanced after 1 trials
   
     0:08:46: Balanced after 1 trials
   
     0:08:47: Balanced after 1 trials
   
     0:08:48: Balanced after 1 trials
   
     0:08:49: Balanced after 1 trials
   
     0:08:50: Balanced after 1 trials
   
     0:08:51: Balanced after 1 trials
   
     0:08:52: Balanced after 1 trials
   
     0:08:53: Balanced after 1 trials
   
     0:08:54: Balanced after 1 trials
   
     0:08:55: Balanced after 1 trials
   
     0:08:56: Balanced after 1 trials
   
     0:08:57: Balanced after 1 trials
   
     0:08:58: Balanced after 1 trials
   
     0:08:59: Balanced after 1 trials
   
     0:09:00: Balanced after 1 trials
   
     0:09:01: Balanced after 1 trials
   
     0:09:02: Balanced after 1 trials
   
     0:09:03: Balanced after 1 trials
   
     0:09:04: Balanced after 1 trials
   
     0:09:05: Balanced after 1 trials
   
     0:09:06: Balanced after 1 trials
   
     0:09:07: Balanced after 1 trials
   
     0:09:08: Balanced after 1 trials
   
     0:09:09: Balanced after 1 trials
   
     0:09:10: Balanced after 1 trials
   
     0:09:11: Balanced after 1 trials
   
     0:09:12: Balanced after 1 trials
   
     0:09:13: Balanced after 1 trials
   
     0:09:14: Balanced after 1 trials
   
     0:09:15: Balanced after 1 trials
   
     0:09:16: Balanced after 1 trials
   
     0:09:17: Balanced after 1 trials
   
     0:09:18: Balanced after 1 trials
   
     0:09:19: Balanced after 1 trials
   
     0:09:20: Balanced after 1 trials
   
     0:09:21: Balanced after 1 trials
   
     0:09:22: Balanced after 1 trials
   
     0:09:23: Balanced after 1 trials
   
     0:09:24: Balanced after 1 trials
   
     0:09:25: Balanced after 1 trials
   
     0:09:26: Balanced after 1 trials
   
     0:09:27: Balanced after 1 trials
   
     0:09:28: Balanced after 1 trials
   
     0:09:29: Balanced after 1 trials
   
     0:09:30: Balanced after 1 trials
   
     0:09:31: Balanced after 1 trials
   
     0:09:32: Balanced after 1 trials
   
     0:09:33: Balanced after 1 trials
   
     0:09:34: Balanced after 1 trials
   
     0:09:35: Balanced after 1 trials
   
     0:09:36: Balanced after 1 trials
   
     0:09:37: Balanced after 1 trials
   
     0:09:38: Balanced after 1 trials
   
     0:09:39: Balanced after 1 trials
   
     0:09:40: Balanced after 1 trials
   
     0:09:41: Balanced after 1 trials
   
     0:09:42: Balanced after 1 trials
   
     0:09:43: Balanced after 1 trials
   
     0:09:44: Balanced after 1 trials
   
     0:09:45: Balanced after 1 trials
   
     0:09:46: Balanced after 1 trials
   
     0:09:47: Balanced after 1 trials
   
     0:09:48: Balanced after 1 trials
   
     0:09:49: Balanced after 1 trials
   
     0:09:50: Balanced after 1 trials
   
     0:09:51: Balanced after 1 trials
   
     0:09:52: Balanced after 1 trials
   
     0:09:53: Balanced after 1 trials
   
     0:09:54: Balanced after 1 trials
   
     0:09:55: Balanced after 1 trials
   
     0:09:56: Balanced after 1 trials
   
     0:09:57: Balanced after 1 trials
   
     0:09:58: Balanced after 1 trials
   
     0:09:59: Balanced after 1 trials
   
     0:10:00: Balanced after 1 trials
   
     0:10:01: Balanced after 1 trials
   
     0:10:02: Balanced after 1 trials
   
     0:10:03: Balanced after 1 trials
   
     0:10:04: Balanced after 1 trials
   
     0:10:05: Balanced after 1 trials
   
     0:10:06: Balanced after 1 trials
   
     0:10:07: Balanced after 1 trials
   
     0:10:08: Balanced after 1 trials
   
     0:10:09: Balanced after 1 trials
   
     0:10:10: Balanced after 2 trials
   
  WARNING: Negative pressures at 0:10:10 hrs.
   
     0:10:11: Balanced after 1 trials
   
  WARNING: Negative pressures at 0:10:11 hrs.
   
     0:10:12: Balanced after 1 trials
   
  WARNING: Negative pressures at 0:10:12 hrs.
   
     0:10:13: Balanced after 1 trials
   
  WARNING: Negative pressures at 0:10:13 hrs.
   
     0:10:14: Balanced after 1 trials
   
  WARNING: Negative pressures at 0:10:14 hrs.
   
     0:10:15: Balanced after 1 trials
   
  WARNING: Negative pressures at 0:10:15 hrs.
   
     0:10:16: Balanced after 1 trials
   
  WARNING: Negative pressures at 0:10:16 hrs.
   
     0:10:17: Balanced after 1 trials
   
  WARNING: Negative pressures at 0:10:17 hrs.
   
     0:10:18: Balanced after 1 trials
   
  WARNING: Negative pressures at 0:10:18 hrs.
   
     0:10:19: Balanced after 1 trials
   
  WARNING: Negative pressures at 0:10:19 hrs.
   
     0:10:20: Balanced after 1 trials
   
  WARNING: Negative pressures at 0:10:20 hrs.
   
     0:10:21: Balanced after 1 trials
   
  WARNING: Negative pressures at 0:10:21 hrs.
   
     0:10:22: Balanced after 1 trials
   
  WARNING: Negative pressures at 0:10:22 hrs.
   
     0:10:23: Balanced after 1 trials
   
  WARNING: Negative pressures at 0:10:23 hrs.
   
     0:10:24: Balanced after 1 trials
   
  WARNING: Negative pressures at 0:10:24 hrs.
   
     0:10:25: Balanced after 1 trials
   
  WARNING: Negative pressures at 0:10:25 hrs.
   
     0:10:26: Balanced after 1 trials
   
  WARNING: Negative pressures at 0:10:26 hrs.
   
     0:10:27: Balanced after 1 trials
   
  WARNING: Negative pressures at 0:10:27 hrs.
   
     0:10:28: Balanced after 1 trials
   
  WARNING: Negative pressures at 0:10:28 hrs.
   
     0:10:29: Balanced after 1 trials
   
  WARNING: Negative pressures at 0:10:29 hrs.
   
     0:10:30: Balanced after 1 trials
   
  WARNING: Negative pressures at 0:10:30 hrs.
   
     0:10:31: Balanced after 1 trials
   
  WARNING: Negative pressures at 0:10:31 hrs.
   
     0:10:32: Balanced after 1 trials
   
  WARNING: Negative pressures at 0:10:32 hrs.
   
     0:10:33: Balanced after 1 trials
   
  WARNING: Negative pressures at 0:10:33 hrs.
   
     0:10:34: Balanced after 1 trials
   
  WARNING: Negative pressures at 0:10:34 hrs.
   
     0:10:35: Balanced after 1 trials
   
  WARNING: Negative pressures at 0:10:35 hrs.
   
     0:10:36: Balanced after 1 trials
   
  WARNING: Negative pressures at 0:10:36 hrs.
   
     0:10:37: Balanced after 1 trials
   
  WARNING: Negative pressures at 0:10:37 hrs.
   
     0:10:38: Balanced after 1 trials
   
  WARNING: Negative pressures at 0:10:38 hrs.
   
     0:10:39: Balanced after 1 trials
   
  WARNING: Negative pressures at 0:10:39 hrs.
   
     0:10:40: Balanced after 1 trials
   
  WARNING: Negative pressures at 0:10:40 hrs.
   
     0:10:41: Balanced after 1 trials
   
  WARNING: Negative pressures at 0:10:41 hrs.
   
     0:10:42: Balanced after 1 trials
   
  WARNING: Negative pressures at 0:10:42 hrs.
   
     0:10:43: Balanced after 1 trials
   
  WARNING: Negative pressures at 0:10:43 hrs.
   
     0:10:44: Balanced after 1 trials
   
  WARNING: Negative pressures at 0:10:44 hrs.
   
     0:10:45: Balanced after 1 trials
   
  WARNING: Negative pressures at 0:10:45 hrs.
   
     0:10:46: Balanced after 1 trials
   
  WARNING: Negative pressures at 0:10:46 hrs.
   
     0:10:47: Balanced after 1 trials
   
  WARNING: Negative pressures at 0:10:47 hrs.
   
     0:10:48: Balanced after 1 trials
   
  WARNING: Negative pressures at 0:10:48 hrs.
   
     0:10:49: Balanced after 1 trials
   
  WARNING: Negative pressures at 0:10:49 hrs.
   
     0:10:50: Balanced after 1 trials
   
  WARNING: Negative pressures at 0:10:50 hrs.
   
     0:10:51: Balanced after 1 trials
   
  WARNING: Negative pressures at 0:10:51 hrs.
   
     0:10:52: Balanced after 1 trials
   
  WARNING: Negative pressures at 0:10:52 hrs.
   
     0:10:53: Balanced after 1 trials
   
  WARNING: Negative pressures at 0:10:53 hrs.
   
     0:10:54: Balanced after 1 trials
   
  WARNING: Negative pressures at 0:10:54 hrs.
   
     0:10:55: Balanced after 1 trials
   
  WARNING: Negative pressures at 0:10:55 hrs.
   
     0:10:56: Balanced after 1 trials
   
  WARNING: Negative pressures at 0:10:56 hrs.
   
     0:10:57: Balanced after 1 trials
   
  WARNING: Negative pressures at 0:10:57 hrs.
   
     0:10:58: Balanced after 1 trials
   
  WARNING: Negative pressures at 0:10:58 hrs.
   
     0:10:59: Balanced after 1 trials
   
  WARNING: Negative pressures at 0:10:59 hrs.
   
     0:11:00: Balanced after 1 trials
   
  WARNING: Negative pressures at 0:11:00 hrs.
   
     0:11:01: Balanced after 1 trials
   
  WARNING: Negative pressures at 0:11:01 hrs.
   
     0:11:02: Balanced after 1 trials
   
  WARNING: Negative pressures at 0:11:02 hrs.
   
     0:11:03: Balanced after 1 trials
   
  WARNING: Negative pressures at 0:11:03 hrs.
   
     0:11:04: Balanced after 1 trials
   
  WARNING: Negative pressures at 0:11:04 hrs.
   
     0:11:05: Balanced after 1 trials
   
  WARNING: Negative pressures at 0:11:05 hrs.
   
     0:11:06: Balanced after 1 trials
   
  WARNING: Negative pressures at 0:11:06 hrs.
   
     0:11:07: Balanced after 1 trials
   
  WARNING: Negative pressures at 0:11:07 hrs.
   
     0:11:08: Balanced after 1 trials
   
  WARNING: Negative pressures at 0:11:08 hrs.
   
     0:11:09: Balanced after 1 trials
   
  WARNING: Negative pressures at 0:11:09 hrs.
   
     0:11:10: Balanced after 1 trials
   
  WARNING: Negative pressures at 0:11:10 hrs.
   
     0:11:11: Balanced after 1 trials
   
  WARNING: Negative pressures at 0:11:11 hrs.
   
     0:11:12: Balanced after 1 trials
   
  WARNING: Negative pressures at 0:11:12 hrs.
   
     0:11:13: Balanced after 1 trials
   
  WARNING: Negative pressures at 0:11:13 hrs.
   
     0:11:14: Balanced after 1 trials
   
  WARNING: Negative pressures at 0:11:14 hrs.
   
     0:11:15: Balanced after 1 trials
   
  WARNING: Negative pressures at 0:11:15 hrs.
   
     0:11:16: Balanced after 1 trials
   
  WARNING: Negative pressures at 0:11:16 hrs.
   
     0:11:17: Balanced after 1 trials
   
  WARNING: Negative pressures at 0:11:17 hrs.
   
     0:11:18: Balanced after 1 trials
   
  WARNING: Negative pressures at 0:11:18 hrs.
   
     0:11:19: Balanced after 1 trials
   
  WARNING: Negative pressures at 0:11:19 hrs.
   
     0:11:20: Balanced after 1 trials
   
  WARNING: Negative pressures at 0:11:20 hrs.
   
     0:11:21: Balanced after 1 trials
   
  WARNING: Negative pressures at 0:11:21 hrs.
   
     0:11:22: Balanced after 1 trials
   
  WARNING: Negative pressures at 0:11:22 hrs.
   
     0:11:23: Balanced after 1 trials
   
  WARNING: Negative pressures at 0:11:23 hrs.
   
     0:11:24: Balanced after 1 trials
   
  WARNING: Negative pressures at 0:11:24 hrs.
   
     0:11:25: Balanced after 1 trials
   
  WARNING: Negative pressures at 0:11:25 hrs.
   
     0:11:26: Balanced after 1 trials
   
  WARNING: Negative pressures at 0:11:26 hrs.
   
     0:11:27: Balanced after 1 trials
   
  WARNING: Negative pressures at 0:11:27 hrs.
   
     0:11:28: Balanced after 1 trials
   
  WARNING: Negative pressures at 0:11:28 hrs.
   
     0:11:29: Balanced after 1 trials
   
  WARNING: Negative pressures at 0:11:29 hrs.
   
     0:11:30: Balanced after 1 trials
   
  WARNING: Negative pressures at 0:11:30 hrs.
   
     0:11:31: Balanced after 1 trials
   
  WARNING: Negative pressures at 0:11:31 hrs.
   
     0:11:32: Balanced after 1 trials
   
  WARNING: Negative pressures at 0:11:32 hrs.
   
     0:11:33: Balanced after 1 trials
   
  WARNING: Negative pressures at 0:11:33 hrs.
   
     0:11:34: Balanced after 1 trials
   
  WARNING: Negative pressures at 0:11:34 hrs.
   
     0:11:35: Balanced after 1 trials
   
  WARNING: Negative pressures at 0:11:35 hrs.
   
     0:11:36: Balanced after 1 trials
   
  WARNING: Negative pressures at 0:11:36 hrs.
   
     0:11:37: Balanced after 1 trials
   
  WARNING: Negative pressures at 0:11:37 hrs.
   
     0:11:38: Balanced after 1 trials
   
  WARNING: Negative pressures at 0:11:38 hrs.
   
     0:11:39: Balanced after 1 trials
   
  WARNING: Negative pressures at 0:11:39 hrs.
   
     0:11:40: Balanced after 1 trials
   
  WARNING: Negative pressures at 0:11:40 hrs.
   
     0:11:41: Balanced after 1 trials
   
  WARNING: Negative pressures at 0:11:41 hrs.
   
     0:11:42: Balanced after 1 trials
   
  WARNING: Negative pressures at 0:11:42 hrs.
   
     0:11:43: Balanced after 1 trials
   
  WARNING: Negative pressures at 0:11:43 hrs.
   
     0:11:44: Balanced after 1 trials
   
  WARNING: Negative pressures at 0:11:44 hrs.
   
     0:11:45: Balanced after 1 trials
   
  WARNING: Negative pressures at 0:11:45 hrs.
   
     0:11:46: Balanced after 1 trials
   
  WARNING: Negative pressures at 0:11:46 hrs.
   
     0:11:47: Balanced after 1 trials
   
  WARNING: Negative pressures at 0:11:47 hrs.
   
     0:11:48: Balanced after 1 trials
   
  WARNING: Negative pressures at 0:11:48 hrs.
   
     0:11:49: Balanced after 1 trials
   
  WARNING: Negative pressures at 0:11:49 hrs.
   
     0:11:50: Balanced after 2 trials
   
     0:11:51: Balanced after 1 trials
   
     0:11:52: Balanced after 1 trials
   
     0:11:53: Balanced after 1 trials
   
     0:11:54: Balanced after 1 trials
   
     0:11:55: Balanced after 1 trials
   
     0:11:56: Balanced after 1 trials
   
     0:11:57: Balanced after 1 trials
   
     0:11:58: Balanced after 1 trials
   
     0:11:59: Balanced after 1 trials
   
     0:12:00: Balanced after 1 trials
   
     0:12:01: Balanced after 1 trials
   
     0:12:02: Balanced after 1 trials
   
     0:12:03: Balanced after 1 trials
   
     0:12:04: Balanced after 1 trials
   
     0:12:05: Balanced after 1 trials
   
     0:12:06: Balanced after 1 trials
   
     0:12:07: Balanced after 1 trials
   
     0:12:08: Balanced after 1 trials
   
     0:12:09: Balanced after 1 trials
   
     0:12:10: Balanced after 1 trials
   
     0:12:11: Balanced after 1 trials
   
     0:12:12: Balanced after 1 trials
   
     0:12:13: Balanced after 1 trials
   
     0:12:14: Balanced after 1 trials
   
     0:12:15: Balanced after 1 trials
   
     0:12:16: Balanced after 1 trials
   
     0:12:17: Balanced after 1 trials
   
     0:12:18: Balanced after 1 trials
   
     0:12:19: Balanced after 1 trials
   
     0:12:20: Balanced after 1 trials
   
     0:12:21: Balanced after 1 trials
   
     0:12:22: Balanced after 1 trials
   
     0:12:23: Balanced after 1 trials
   
     0:12:24: Balanced after 1 trials
   
     0:12:25: Balanced after 1 trials
   
     0:12:26: Balanced after 1 trials
   
     0:12:27: Balanced after 1 trials
   
     0:12:28: Balanced after 1 trials
   
     0:12:29: Balanced after 1 trials
   
     0:12:30: Balanced after 1 trials
   
     0:12:31: Balanced after 1 trials
   
     0:12:32: Balanced after 1 trials
   
     0:12:33: Balanced after 1 trials
   
     0:12:34: Balanced after 1 trials
   
     0:12:35: Balanced after 1 trials
   
     0:12:36: Balanced after 1 trials
   
     0:12:37: Balanced after 1 trials
   
     0:12:38: Balanced after 1 trials
   
     0:12:39: Balanced after 1 trials
   
     0:12:40: Balanced after 1 trials
   
     0:12:41: Balanced after 1 trials
   
     0:12:42: Balanced after 1 trials
   
     0:12:43: Balanced after 1 trials
   
     0:12:44: Balanced after 1 trials
   
     0:12:45: Balanced after 1 trials
   
     0:12:46: Balanced after 1 trials
   
     0:12:47: Balanced after 1 trials
   
     0:12:48: Balanced after 1 trials
   
     0:12:49: Balanced after 1 trials
   
     0:12:50: Balanced after 1 trials
   
     0:12:51: Balanced after 1 trials
   
     0:12:52: Balanced after 1 trials
   
     0:12:53: Balanced after 1 trials
   
     0:12:54: Balanced after 1 trials
   
     0:12:55: Balanced after 1 trials
   
     0:12:56: Balanced after 1 trials
   
     0:12:57: Balanced after 1 trials
   
     0:12:58: Balanced after 1 trials
   
     0:12:59: Balanced after 1 trials
   
     0:13:00: Balanced after 1 trials
   
  Water Quality Mass Balance (mg)
  ================================
  Initial Mass:      1.20537e+008
  Mass Inflow:       0.00000e+000
  Mass Outflow:      4.34170e+007
  Mass Reacted:      -8.96064e+000
  Final Mass:        7.71202e+007
  Mass Ratio:         1.00000
  ================================

  Analysis ended Wed Nov 29 14:35:31 2023
